/*--------------------------------*- C++ -*----------------------------------*\
| =========                 |                                                 |
| \\      /  F ield         | OpenFOAM: The Open Source CFD Toolbox           |
|  \\    /   O peration     | Version:  v2012                                 |
|   \\  /    A nd           | Website:  www.openfoam.com                      |
|    \\/     M anipulation  |                                                 |
\*---------------------------------------------------------------------------*/
FoamFile
{
    version     2.0;
    format      ascii;
    class       dictionary;
    location    "system";
    object      fieldAverage;
}
// * * * * * * * * * * * * * * * * * * * * * * * * * * * * * * * * * * * * * //   
    fieldAverage
    {
        type            fieldAverage;
        libs            (fieldFunctionObjects);
        // Optional entries
        restartOnRestart    false;
        restartOnOutput     false;
        periodicRestart     false;

        // Optional (inherited) entries
        region          region0;
        enabled         true;
        log             true;
        timeStart       0.02;
        executeControl  timeStep;
        executeInterval 1;
        writeControl    writeTime;
        writeInterval   -1;
        fields
        (
            U
            {
                mean        on;
                prime2Mean  on;
                base        time;
            }

            p
            {
                mean        on;
                prime2Mean  on;
                base        time;
            }                     
        );

    }

// ************************************************************************* //
